Circuit: * C:\Users\moein\iCloudDrive\SUT\S4\Electronic II\ElectronicsII_Project_Phase1\Part2\P2.asc

WARNING: Less than two connections to node VT.  This node is used by V5.
Instance "m4": Length shorter than recommended for a level 1 MOSFET.
Instance "m4": Width narrower than recommended for a level 1 MOSFET.
Instance "m3": Length shorter than recommended for a level 1 MOSFET.
Instance "m3": Width narrower than recommended for a level 1 MOSFET.
Instance "m2": Length shorter than recommended for a level 1 MOSFET.
Instance "m1": Length shorter than recommended for a level 1 MOSFET.
Direct Newton iteration for .op point succeeded.
Direct Newton iteration for .op point succeeded.
Direct Newton iteration for .op point succeeded.
Direct Newton iteration for .op point succeeded.
Direct Newton iteration for .op point succeeded.
Direct Newton iteration for .op point succeeded.
Direct Newton iteration for .op point succeeded.
Direct Newton iteration for .op point succeeded.
Direct Newton iteration for .op point succeeded.
Direct Newton iteration for .op point succeeded.
Direct Newton iteration for .op point succeeded.
Direct Newton iteration for .op point succeeded.
Direct Newton iteration for .op point succeeded.
Direct Newton iteration for .op point succeeded.
Direct Newton iteration for .op point succeeded.
Direct Newton iteration for .op point succeeded.
Direct Newton iteration for .op point succeeded.
Direct Newton iteration for .op point succeeded.
Direct Newton iteration for .op point succeeded.
Direct Newton iteration for .op point succeeded.
Direct Newton iteration for .op point succeeded.
Direct Newton iteration for .op point succeeded.
Direct Newton iteration for .op point succeeded.
Direct Newton iteration for .op point succeeded.
Direct Newton iteration for .op point succeeded.
Direct Newton iteration for .op point succeeded.
Direct Newton iteration for .op point succeeded.
Direct Newton iteration for .op point succeeded.
Direct Newton iteration for .op point succeeded.
Direct Newton iteration for .op point succeeded.
Direct Newton iteration for .op point succeeded.
Direct Newton iteration for .op point succeeded.
Direct Newton iteration for .op point succeeded.
Direct Newton iteration for .op point succeeded.
Direct Newton iteration for .op point succeeded.
Direct Newton iteration for .op point succeeded.
Direct Newton iteration for .op point succeeded.
Direct Newton iteration for .op point succeeded.
Direct Newton iteration for .op point succeeded.
Direct Newton iteration for .op point succeeded.
Direct Newton iteration for .op point succeeded.
Direct Newton iteration for .op point succeeded.
Direct Newton iteration for .op point succeeded.
Direct Newton iteration for .op point succeeded.
Direct Newton iteration for .op point succeeded.
Direct Newton iteration for .op point succeeded.
Direct Newton iteration for .op point succeeded.
Direct Newton iteration for .op point succeeded.
Direct Newton iteration for .op point succeeded.
Direct Newton iteration for .op point succeeded.
Direct Newton iteration for .op point succeeded.
Direct Newton iteration for .op point succeeded.
Direct Newton iteration for .op point succeeded.
Direct Newton iteration for .op point succeeded.
Direct Newton iteration for .op point succeeded.
Direct Newton iteration for .op point succeeded.
Direct Newton iteration for .op point succeeded.
Direct Newton iteration for .op point succeeded.
Direct Newton iteration for .op point succeeded.
Direct Newton iteration for .op point succeeded.
Direct Newton iteration for .op point succeeded.
Direct Newton iteration for .op point succeeded.
Direct Newton iteration for .op point succeeded.
Direct Newton iteration for .op point succeeded.
Direct Newton iteration for .op point succeeded.
Direct Newton iteration for .op point succeeded.
Direct Newton iteration for .op point succeeded.
Direct Newton iteration for .op point succeeded.
Direct Newton iteration for .op point succeeded.
Direct Newton iteration for .op point succeeded.
Direct Newton iteration for .op point succeeded.
Direct Newton iteration for .op point succeeded.
Direct Newton iteration for .op point succeeded.
Direct Newton iteration for .op point succeeded.
Direct Newton iteration for .op point succeeded.
Direct Newton iteration for .op point succeeded.
Direct Newton iteration for .op point succeeded.
Direct Newton iteration for .op point succeeded.
Direct Newton iteration for .op point succeeded.
Direct Newton iteration for .op point succeeded.
Direct Newton iteration for .op point succeeded.
Direct Newton iteration for .op point succeeded.
Direct Newton iteration for .op point succeeded.
Direct Newton iteration for .op point succeeded.
Direct Newton iteration for .op point succeeded.
Direct Newton iteration for .op point succeeded.
Direct Newton iteration for .op point succeeded.
Direct Newton iteration for .op point succeeded.
Direct Newton iteration for .op point succeeded.
Direct Newton iteration for .op point succeeded.
Direct Newton iteration for .op point succeeded.
Direct Newton iteration for .op point succeeded.
Direct Newton iteration for .op point succeeded.
Direct Newton iteration for .op point succeeded.
Direct Newton iteration for .op point succeeded.
Direct Newton iteration for .op point succeeded.
Direct Newton iteration for .op point succeeded.
Direct Newton iteration for .op point succeeded.
Direct Newton iteration for .op point succeeded.
Direct Newton iteration for .op point succeeded.
Direct Newton iteration for .op point succeeded.
Direct Newton iteration for .op point succeeded.
Direct Newton iteration for .op point succeeded.
Direct Newton iteration for .op point succeeded.
Direct Newton iteration for .op point succeeded.
Direct Newton iteration for .op point succeeded.
Direct Newton iteration for .op point succeeded.
Direct Newton iteration for .op point succeeded.
Direct Newton iteration for .op point succeeded.
Direct Newton iteration for .op point succeeded.
Direct Newton iteration for .op point succeeded.
Direct Newton iteration for .op point succeeded.
Direct Newton iteration for .op point succeeded.
Direct Newton iteration for .op point succeeded.
Direct Newton iteration for .op point succeeded.
Direct Newton iteration for .op point succeeded.
Direct Newton iteration for .op point succeeded.
Direct Newton iteration for .op point succeeded.
Direct Newton iteration for .op point succeeded.
Direct Newton iteration for .op point succeeded.
Direct Newton iteration for .op point succeeded.
Direct Newton iteration for .op point succeeded.
Direct Newton iteration for .op point succeeded.
Direct Newton iteration for .op point succeeded.
Direct Newton iteration for .op point succeeded.
Direct Newton iteration for .op point succeeded.
Direct Newton iteration for .op point succeeded.
Direct Newton iteration for .op point succeeded.
Direct Newton iteration for .op point succeeded.
Direct Newton iteration for .op point succeeded.
Direct Newton iteration for .op point succeeded.
Direct Newton iteration for .op point succeeded.
Direct Newton iteration for .op point succeeded.
Direct Newton iteration for .op point succeeded.
Direct Newton iteration for .op point succeeded.
Direct Newton iteration for .op point succeeded.
Direct Newton iteration for .op point succeeded.
Direct Newton iteration for .op point succeeded.
Direct Newton iteration for .op point succeeded.
Direct Newton iteration for .op point succeeded.
Direct Newton iteration for .op point succeeded.
Direct Newton iteration for .op point succeeded.
Direct Newton iteration for .op point succeeded.
Direct Newton iteration for .op point succeeded.
Direct Newton iteration for .op point succeeded.
Direct Newton iteration for .op point succeeded.
Direct Newton iteration for .op point succeeded.
Direct Newton iteration for .op point succeeded.
Direct Newton iteration for .op point succeeded.
Direct Newton iteration for .op point succeeded.
Direct Newton iteration for .op point succeeded.
Direct Newton iteration for .op point succeeded.
Direct Newton iteration for .op point succeeded.
Direct Newton iteration for .op point succeeded.
Direct Newton iteration for .op point succeeded.
Direct Newton iteration for .op point succeeded.
Direct Newton iteration for .op point succeeded.
Direct Newton iteration for .op point succeeded.
Direct Newton iteration for .op point succeeded.
Direct Newton iteration for .op point succeeded.
Direct Newton iteration for .op point succeeded.
Direct Newton iteration for .op point succeeded.
Direct Newton iteration for .op point succeeded.
Direct Newton iteration for .op point succeeded.
Direct Newton iteration for .op point succeeded.
Direct Newton iteration for .op point succeeded.
Direct Newton iteration for .op point succeeded.
Direct Newton iteration for .op point succeeded.
Direct Newton iteration for .op point succeeded.
Direct Newton iteration for .op point succeeded.
Direct Newton iteration for .op point succeeded.
Direct Newton iteration for .op point succeeded.
Direct Newton iteration for .op point succeeded.
Direct Newton iteration for .op point succeeded.
Direct Newton iteration for .op point succeeded.
Direct Newton iteration for .op point succeeded.
Direct Newton iteration for .op point succeeded.
Direct Newton iteration for .op point succeeded.
Direct Newton iteration for .op point succeeded.
Direct Newton iteration for .op point succeeded.
Direct Newton iteration for .op point succeeded.
Direct Newton iteration for .op point succeeded.
Direct Newton iteration for .op point succeeded.
Direct Newton iteration for .op point succeeded.
Direct Newton iteration for .op point succeeded.
Direct Newton iteration for .op point succeeded.
Direct Newton iteration for .op point succeeded.
Direct Newton iteration for .op point succeeded.
Direct Newton iteration for .op point succeeded.
Direct Newton iteration for .op point succeeded.
Direct Newton iteration for .op point succeeded.
Direct Newton iteration for .op point succeeded.
Direct Newton iteration for .op point succeeded.
Direct Newton iteration for .op point succeeded.
Direct Newton iteration for .op point succeeded.
Direct Newton iteration for .op point succeeded.
Direct Newton iteration for .op point succeeded.
Direct Newton iteration for .op point succeeded.
Direct Newton iteration for .op point succeeded.
Direct Newton iteration for .op point succeeded.
Direct Newton iteration for .op point succeeded.
Direct Newton iteration for .op point succeeded.
Direct Newton iteration for .op point succeeded.
Direct Newton iteration for .op point succeeded.
Direct Newton iteration for .op point succeeded.
Direct Newton iteration for .op point succeeded.
Direct Newton iteration for .op point succeeded.
Direct Newton iteration for .op point succeeded.
Direct Newton iteration for .op point succeeded.
Direct Newton iteration for .op point succeeded.
Direct Newton iteration for .op point succeeded.
Direct Newton iteration for .op point succeeded.
Direct Newton iteration for .op point succeeded.
Direct Newton iteration for .op point succeeded.
Direct Newton iteration for .op point succeeded.
Direct Newton iteration for .op point succeeded.
Direct Newton iteration for .op point succeeded.
Direct Newton iteration for .op point succeeded.
Direct Newton iteration for .op point succeeded.
Direct Newton iteration for .op point succeeded.
Direct Newton iteration for .op point succeeded.
Direct Newton iteration for .op point succeeded.
Direct Newton iteration for .op point succeeded.
Direct Newton iteration for .op point succeeded.
Direct Newton iteration for .op point succeeded.
Direct Newton iteration for .op point succeeded.
Direct Newton iteration for .op point succeeded.
Direct Newton iteration for .op point succeeded.
Direct Newton iteration for .op point succeeded.
Direct Newton iteration for .op point succeeded.
Direct Newton iteration for .op point succeeded.
Direct Newton iteration for .op point succeeded.
Direct Newton iteration for .op point succeeded.
Direct Newton iteration for .op point succeeded.
Direct Newton iteration for .op point succeeded.
Direct Newton iteration for .op point succeeded.
Direct Newton iteration for .op point succeeded.
Direct Newton iteration for .op point succeeded.
Direct Newton iteration for .op point succeeded.
Direct Newton iteration for .op point succeeded.
Direct Newton iteration for .op point succeeded.
Direct Newton iteration for .op point succeeded.
Direct Newton iteration for .op point succeeded.
Direct Newton iteration for .op point succeeded.
Direct Newton iteration for .op point succeeded.
Direct Newton iteration for .op point succeeded.
Direct Newton iteration for .op point succeeded.
Direct Newton iteration for .op point succeeded.
Direct Newton iteration for .op point succeeded.
Direct Newton iteration for .op point succeeded.
Direct Newton iteration for .op point succeeded.
Direct Newton iteration for .op point succeeded.
Direct Newton iteration for .op point succeeded.
Direct Newton iteration for .op point succeeded.
Direct Newton iteration for .op point succeeded.
Direct Newton iteration for .op point succeeded.
Direct Newton iteration for .op point succeeded.
Direct Newton iteration for .op point succeeded.
Direct Newton iteration for .op point succeeded.
Direct Newton iteration for .op point succeeded.
Direct Newton iteration for .op point succeeded.
Direct Newton iteration for .op point succeeded.
Direct Newton iteration for .op point succeeded.
Direct Newton iteration for .op point succeeded.
Direct Newton iteration for .op point succeeded.
Direct Newton iteration for .op point succeeded.
Direct Newton iteration for .op point succeeded.
Direct Newton iteration for .op point succeeded.
Direct Newton iteration for .op point succeeded.
Direct Newton iteration for .op point succeeded.
Direct Newton iteration for .op point succeeded.
Direct Newton iteration for .op point succeeded.
Direct Newton iteration for .op point succeeded.
Direct Newton iteration for .op point succeeded.
Direct Newton iteration for .op point succeeded.
Direct Newton iteration for .op point succeeded.
Direct Newton iteration for .op point succeeded.
Direct Newton iteration for .op point succeeded.
Direct Newton iteration for .op point succeeded.
Direct Newton iteration for .op point succeeded.
Direct Newton iteration for .op point succeeded.
Direct Newton iteration for .op point succeeded.
Direct Newton iteration for .op point succeeded.
Direct Newton iteration for .op point succeeded.
Direct Newton iteration for .op point succeeded.
Direct Newton iteration for .op point succeeded.
Direct Newton iteration for .op point succeeded.
Direct Newton iteration for .op point succeeded.
Direct Newton iteration for .op point succeeded.
Direct Newton iteration for .op point succeeded.
Direct Newton iteration for .op point succeeded.
Direct Newton iteration for .op point succeeded.
Direct Newton iteration for .op point succeeded.
Direct Newton iteration for .op point succeeded.
Direct Newton iteration for .op point succeeded.
Direct Newton iteration for .op point succeeded.
Direct Newton iteration for .op point succeeded.
Direct Newton iteration for .op point succeeded.
Direct Newton iteration for .op point succeeded.
Direct Newton iteration for .op point succeeded.
Direct Newton iteration for .op point succeeded.
Direct Newton iteration for .op point succeeded.
Direct Newton iteration for .op point succeeded.
Direct Newton iteration for .op point succeeded.
Direct Newton iteration for .op point succeeded.
Direct Newton iteration for .op point succeeded.
Direct Newton iteration for .op point succeeded.
Direct Newton iteration for .op point succeeded.
Direct Newton iteration for .op point succeeded.
Direct Newton iteration for .op point succeeded.
Direct Newton iteration for .op point succeeded.
Direct Newton iteration for .op point succeeded.
Direct Newton iteration for .op point succeeded.
Direct Newton iteration for .op point succeeded.
Direct Newton iteration for .op point succeeded.
Direct Newton iteration for .op point succeeded.
Direct Newton iteration for .op point succeeded.
Direct Newton iteration for .op point succeeded.
Direct Newton iteration for .op point succeeded.
Direct Newton iteration for .op point succeeded.
Direct Newton iteration for .op point succeeded.
Direct Newton iteration for .op point succeeded.
Direct Newton iteration for .op point succeeded.
Direct Newton iteration for .op point succeeded.
Direct Newton iteration for .op point succeeded.
Direct Newton iteration for .op point succeeded.
Direct Newton iteration for .op point succeeded.
Direct Newton iteration for .op point succeeded.
Direct Newton iteration for .op point succeeded.
Direct Newton iteration for .op point succeeded.
Direct Newton iteration for .op point succeeded.
Direct Newton iteration for .op point succeeded.
Direct Newton iteration for .op point succeeded.
Direct Newton iteration for .op point succeeded.
Direct Newton iteration for .op point succeeded.
Direct Newton iteration for .op point succeeded.
Direct Newton iteration for .op point succeeded.
Direct Newton iteration for .op point succeeded.
Direct Newton iteration for .op point succeeded.
Direct Newton iteration for .op point succeeded.
Direct Newton iteration for .op point succeeded.
Direct Newton iteration for .op point succeeded.
Direct Newton iteration for .op point succeeded.
Direct Newton iteration for .op point succeeded.
Direct Newton iteration for .op point succeeded.
Direct Newton iteration for .op point succeeded.
Direct Newton iteration for .op point succeeded.
Direct Newton iteration for .op point succeeded.
Direct Newton iteration for .op point succeeded.
Direct Newton iteration for .op point succeeded.
Direct Newton iteration for .op point succeeded.
Direct Newton iteration for .op point succeeded.
Direct Newton iteration for .op point succeeded.
Direct Newton iteration for .op point succeeded.
Direct Newton iteration for .op point succeeded.
Direct Newton iteration for .op point succeeded.
Direct Newton iteration for .op point succeeded.
Direct Newton iteration for .op point succeeded.
Direct Newton iteration for .op point succeeded.
Direct Newton iteration for .op point succeeded.
Direct Newton iteration for .op point succeeded.
Direct Newton iteration for .op point succeeded.
Direct Newton iteration for .op point succeeded.
Direct Newton iteration for .op point succeeded.
Direct Newton iteration for .op point succeeded.
Direct Newton iteration for .op point succeeded.
Direct Newton iteration for .op point succeeded.
Direct Newton iteration for .op point succeeded.
Direct Newton iteration for .op point succeeded.
Direct Newton iteration for .op point succeeded.
Direct Newton iteration for .op point succeeded.
Direct Newton iteration for .op point succeeded.
Direct Newton iteration for .op point succeeded.
Direct Newton iteration for .op point succeeded.
Direct Newton iteration for .op point succeeded.
Direct Newton iteration for .op point succeeded.
Direct Newton iteration for .op point succeeded.
Direct Newton iteration for .op point succeeded.
Direct Newton iteration for .op point succeeded.
Direct Newton iteration for .op point succeeded.
Direct Newton iteration for .op point succeeded.
Direct Newton iteration for .op point succeeded.
Direct Newton iteration for .op point succeeded.
Direct Newton iteration for .op point succeeded.
Direct Newton iteration for .op point succeeded.
Direct Newton iteration for .op point succeeded.
Direct Newton iteration for .op point succeeded.
Direct Newton iteration for .op point succeeded.
Direct Newton iteration for .op point succeeded.
Direct Newton iteration for .op point succeeded.
Direct Newton iteration for .op point succeeded.
Direct Newton iteration for .op point succeeded.
Direct Newton iteration for .op point succeeded.
Direct Newton iteration for .op point succeeded.
Direct Newton iteration for .op point succeeded.
Direct Newton iteration for .op point succeeded.
Direct Newton iteration for .op point succeeded.
Direct Newton iteration for .op point succeeded.
Direct Newton iteration for .op point succeeded.
Direct Newton iteration for .op point succeeded.
Direct Newton iteration for .op point succeeded.
Direct Newton iteration for .op point succeeded.
Direct Newton iteration for .op point succeeded.
Direct Newton iteration for .op point succeeded.
Direct Newton iteration for .op point succeeded.
Direct Newton iteration for .op point succeeded.
Direct Newton iteration for .op point succeeded.
Direct Newton iteration for .op point succeeded.
Direct Newton iteration for .op point succeeded.
Direct Newton iteration for .op point succeeded.
Direct Newton iteration for .op point succeeded.
Direct Newton iteration for .op point succeeded.
Direct Newton iteration for .op point succeeded.
Direct Newton iteration for .op point succeeded.
Direct Newton iteration for .op point succeeded.
Direct Newton iteration for .op point succeeded.
Direct Newton iteration for .op point succeeded.
Direct Newton iteration for .op point succeeded.
Direct Newton iteration for .op point succeeded.
Direct Newton iteration for .op point succeeded.
Direct Newton iteration for .op point succeeded.
Direct Newton iteration for .op point succeeded.
Direct Newton iteration for .op point succeeded.
Direct Newton iteration for .op point succeeded.
Direct Newton iteration for .op point succeeded.
Direct Newton iteration for .op point succeeded.
Direct Newton iteration for .op point succeeded.
Direct Newton iteration for .op point succeeded.
Direct Newton iteration for .op point succeeded.
Direct Newton iteration for .op point succeeded.
Direct Newton iteration for .op point succeeded.
Direct Newton iteration for .op point succeeded.
Direct Newton iteration for .op point succeeded.
Direct Newton iteration for .op point succeeded.
Direct Newton iteration for .op point succeeded.
Direct Newton iteration for .op point succeeded.
Direct Newton iteration for .op point succeeded.
Direct Newton iteration for .op point succeeded.
Direct Newton iteration for .op point succeeded.
Direct Newton iteration for .op point succeeded.
Direct Newton iteration for .op point succeeded.
Direct Newton iteration for .op point succeeded.
Direct Newton iteration for .op point succeeded.
Direct Newton iteration for .op point succeeded.
Direct Newton iteration for .op point succeeded.
Direct Newton iteration for .op point succeeded.
Direct Newton iteration for .op point succeeded.
Direct Newton iteration for .op point succeeded.
Direct Newton iteration for .op point succeeded.
Direct Newton iteration for .op point succeeded.
Direct Newton iteration for .op point succeeded.
Direct Newton iteration for .op point succeeded.
Direct Newton iteration for .op point succeeded.
Direct Newton iteration for .op point succeeded.
Direct Newton iteration for .op point succeeded.
Direct Newton iteration for .op point succeeded.
Direct Newton iteration for .op point succeeded.
Direct Newton iteration for .op point succeeded.
Direct Newton iteration for .op point succeeded.
Direct Newton iteration for .op point succeeded.
Direct Newton iteration for .op point succeeded.
Direct Newton iteration for .op point succeeded.
Direct Newton iteration for .op point succeeded.
Direct Newton iteration for .op point succeeded.
Direct Newton iteration for .op point succeeded.
Direct Newton iteration for .op point succeeded.
Direct Newton iteration for .op point succeeded.
Direct Newton iteration for .op point succeeded.
Direct Newton iteration for .op point succeeded.
Direct Newton iteration for .op point succeeded.
Direct Newton iteration for .op point succeeded.
Direct Newton iteration for .op point succeeded.
Direct Newton iteration for .op point succeeded.
Direct Newton iteration for .op point succeeded.
Direct Newton iteration for .op point succeeded.
Direct Newton iteration for .op point succeeded.
Direct Newton iteration for .op point succeeded.
Direct Newton iteration for .op point succeeded.
Direct Newton iteration for .op point succeeded.
Direct Newton iteration for .op point succeeded.
Direct Newton iteration for .op point succeeded.
Direct Newton iteration for .op point succeeded.
Direct Newton iteration for .op point succeeded.
Direct Newton iteration for .op point succeeded.
Direct Newton iteration for .op point succeeded.
Direct Newton iteration for .op point succeeded.
Direct Newton iteration for .op point succeeded.
Direct Newton iteration for .op point succeeded.
Direct Newton iteration for .op point succeeded.
Direct Newton iteration for .op point succeeded.
Direct Newton iteration for .op point succeeded.
Direct Newton iteration for .op point succeeded.
Direct Newton iteration for .op point succeeded.
Direct Newton iteration for .op point succeeded.
Direct Newton iteration for .op point succeeded.
Direct Newton iteration for .op point succeeded.
Direct Newton iteration for .op point succeeded.
Direct Newton iteration for .op point succeeded.
Direct Newton iteration for .op point succeeded.
Direct Newton iteration for .op point succeeded.
Direct Newton iteration for .op point succeeded.
Direct Newton iteration for .op point succeeded.
Direct Newton iteration for .op point succeeded.
Direct Newton iteration for .op point succeeded.
Direct Newton iteration for .op point succeeded.
Direct Newton iteration for .op point succeeded.
Direct Newton iteration for .op point succeeded.
Direct Newton iteration for .op point succeeded.
Direct Newton iteration for .op point succeeded.
Direct Newton iteration for .op point succeeded.
Direct Newton iteration for .op point succeeded.
Direct Newton iteration for .op point succeeded.
Direct Newton iteration for .op point succeeded.
Direct Newton iteration for .op point succeeded.
Direct Newton iteration for .op point succeeded.
Direct Newton iteration for .op point succeeded.
Direct Newton iteration for .op point succeeded.
Direct Newton iteration for .op point succeeded.
Direct Newton iteration for .op point succeeded.
Direct Newton iteration for .op point succeeded.
Direct Newton iteration for .op point succeeded.
Direct Newton iteration for .op point succeeded.
Direct Newton iteration for .op point succeeded.
Direct Newton iteration for .op point succeeded.
Direct Newton iteration for .op point succeeded.
Direct Newton iteration for .op point succeeded.
Direct Newton iteration for .op point succeeded.
Direct Newton iteration for .op point succeeded.
Direct Newton iteration for .op point succeeded.
Direct Newton iteration for .op point succeeded.
Direct Newton iteration for .op point succeeded.
Direct Newton iteration for .op point succeeded.
Direct Newton iteration for .op point succeeded.
Direct Newton iteration for .op point succeeded.
Direct Newton iteration for .op point succeeded.
Direct Newton iteration for .op point succeeded.
Direct Newton iteration for .op point succeeded.
Direct Newton iteration for .op point succeeded.
Direct Newton iteration for .op point succeeded.
Direct Newton iteration for .op point succeeded.
Direct Newton iteration for .op point succeeded.
Direct Newton iteration for .op point succeeded.
Direct Newton iteration for .op point succeeded.
Direct Newton iteration for .op point succeeded.
Direct Newton iteration for .op point succeeded.
Direct Newton iteration for .op point succeeded.
Direct Newton iteration for .op point succeeded.
Direct Newton iteration for .op point succeeded.
Direct Newton iteration for .op point succeeded.
Direct Newton iteration for .op point succeeded.
Direct Newton iteration for .op point succeeded.
Direct Newton iteration for .op point succeeded.
Direct Newton iteration for .op point succeeded.
Direct Newton iteration for .op point succeeded.
Direct Newton iteration for .op point succeeded.
Direct Newton iteration for .op point succeeded.
Direct Newton iteration for .op point succeeded.
Direct Newton iteration for .op point succeeded.
Direct Newton iteration for .op point succeeded.
Direct Newton iteration for .op point succeeded.
Direct Newton iteration for .op point succeeded.
Direct Newton iteration for .op point succeeded.
Direct Newton iteration for .op point succeeded.
Direct Newton iteration for .op point succeeded.
Direct Newton iteration for .op point succeeded.
Direct Newton iteration for .op point succeeded.
Direct Newton iteration for .op point succeeded.
Direct Newton iteration for .op point succeeded.
Direct Newton iteration for .op point succeeded.
Direct Newton iteration for .op point succeeded.
Direct Newton iteration for .op point succeeded.
Direct Newton iteration for .op point succeeded.
Direct Newton iteration for .op point succeeded.
Direct Newton iteration for .op point succeeded.
Direct Newton iteration for .op point succeeded.
Direct Newton iteration for .op point succeeded.
Direct Newton iteration for .op point succeeded.
Direct Newton iteration for .op point succeeded.
Direct Newton iteration for .op point succeeded.
Direct Newton iteration for .op point succeeded.
Direct Newton iteration for .op point succeeded.
Direct Newton iteration for .op point succeeded.
Direct Newton iteration for .op point succeeded.
Direct Newton iteration for .op point succeeded.
Direct Newton iteration for .op point succeeded.
Direct Newton iteration for .op point succeeded.
Direct Newton iteration for .op point succeeded.
Direct Newton iteration for .op point succeeded.
Direct Newton iteration for .op point succeeded.
Direct Newton iteration for .op point succeeded.
Direct Newton iteration for .op point succeeded.
Direct Newton iteration for .op point succeeded.
Direct Newton iteration for .op point succeeded.
Direct Newton iteration for .op point succeeded.
Direct Newton iteration for .op point succeeded.
Direct Newton iteration for .op point succeeded.
Direct Newton iteration for .op point succeeded.
Direct Newton iteration for .op point succeeded.
Direct Newton iteration for .op point succeeded.
Direct Newton iteration for .op point succeeded.
Direct Newton iteration for .op point succeeded.
Direct Newton iteration for .op point succeeded.
Direct Newton iteration for .op point succeeded.
Direct Newton iteration for .op point succeeded.
Direct Newton iteration for .op point succeeded.
Direct Newton iteration for .op point succeeded.
Direct Newton iteration for .op point succeeded.
Direct Newton iteration for .op point succeeded.
Direct Newton iteration for .op point succeeded.
Direct Newton iteration for .op point succeeded.
Direct Newton iteration for .op point succeeded.
Direct Newton iteration for .op point succeeded.
Direct Newton iteration for .op point succeeded.
Direct Newton iteration for .op point succeeded.
Direct Newton iteration for .op point succeeded.
Direct Newton iteration for .op point succeeded.
Direct Newton iteration for .op point succeeded.
Direct Newton iteration for .op point succeeded.
Direct Newton iteration for .op point succeeded.
Direct Newton iteration for .op point succeeded.
Direct Newton iteration for .op point succeeded.
Direct Newton iteration for .op point succeeded.
Direct Newton iteration for .op point succeeded.
Direct Newton iteration for .op point succeeded.
Direct Newton iteration for .op point succeeded.
Direct Newton iteration for .op point succeeded.
Direct Newton iteration for .op point succeeded.
Direct Newton iteration for .op point succeeded.
Direct Newton iteration for .op point succeeded.
Direct Newton iteration for .op point succeeded.
Direct Newton iteration for .op point succeeded.
Direct Newton iteration for .op point succeeded.
Direct Newton iteration for .op point succeeded.
Direct Newton iteration for .op point succeeded.
Direct Newton iteration for .op point succeeded.
Direct Newton iteration for .op point succeeded.
Direct Newton iteration for .op point succeeded.
Direct Newton iteration for .op point succeeded.
Direct Newton iteration for .op point succeeded.
Direct Newton iteration for .op point succeeded.
Direct Newton iteration for .op point succeeded.
Direct Newton iteration for .op point succeeded.
Direct Newton iteration for .op point succeeded.
Direct Newton iteration for .op point succeeded.
Direct Newton iteration for .op point succeeded.
Direct Newton iteration for .op point succeeded.
Direct Newton iteration for .op point succeeded.
Direct Newton iteration for .op point succeeded.
Direct Newton iteration for .op point succeeded.
Direct Newton iteration for .op point succeeded.
Direct Newton iteration for .op point succeeded.
Direct Newton iteration for .op point succeeded.
Direct Newton iteration for .op point succeeded.
Direct Newton iteration for .op point succeeded.
Direct Newton iteration for .op point succeeded.
Direct Newton iteration for .op point succeeded.
Direct Newton iteration for .op point succeeded.
Direct Newton iteration for .op point succeeded.
Direct Newton iteration for .op point succeeded.
Direct Newton iteration for .op point succeeded.
Direct Newton iteration for .op point succeeded.
Direct Newton iteration for .op point succeeded.
Direct Newton iteration for .op point succeeded.
Direct Newton iteration for .op point succeeded.
Direct Newton iteration for .op point succeeded.
Direct Newton iteration for .op point succeeded.
Direct Newton iteration for .op point succeeded.
Direct Newton iteration for .op point succeeded.
Direct Newton iteration for .op point succeeded.
Direct Newton iteration for .op point succeeded.
Direct Newton iteration for .op point succeeded.
Direct Newton iteration for .op point succeeded.
Direct Newton iteration for .op point succeeded.
Direct Newton iteration for .op point succeeded.
Direct Newton iteration for .op point succeeded.
Direct Newton iteration for .op point succeeded.
Direct Newton iteration for .op point succeeded.
Direct Newton iteration for .op point succeeded.
Direct Newton iteration for .op point succeeded.
Direct Newton iteration for .op point succeeded.
Direct Newton iteration for .op point succeeded.
Direct Newton iteration for .op point succeeded.
Direct Newton iteration for .op point succeeded.
Direct Newton iteration for .op point succeeded.
Direct Newton iteration for .op point succeeded.
Direct Newton iteration for .op point succeeded.
Direct Newton iteration for .op point succeeded.
Direct Newton iteration for .op point succeeded.
Direct Newton iteration for .op point succeeded.
Direct Newton iteration for .op point succeeded.
Direct Newton iteration for .op point succeeded.
Direct Newton iteration for .op point succeeded.
Direct Newton iteration for .op point succeeded.
Direct Newton iteration for .op point succeeded.
Direct Newton iteration for .op point succeeded.
Direct Newton iteration for .op point succeeded.
Direct Newton iteration for .op point succeeded.
Direct Newton iteration for .op point succeeded.
Direct Newton iteration for .op point succeeded.
Direct Newton iteration for .op point succeeded.
Direct Newton iteration for .op point succeeded.
Direct Newton iteration for .op point succeeded.
Direct Newton iteration for .op point succeeded.
Direct Newton iteration for .op point succeeded.
Direct Newton iteration for .op point succeeded.
Direct Newton iteration for .op point succeeded.
Direct Newton iteration for .op point succeeded.
Direct Newton iteration for .op point succeeded.
Direct Newton iteration for .op point succeeded.
Direct Newton iteration for .op point succeeded.
Direct Newton iteration for .op point succeeded.
Direct Newton iteration for .op point succeeded.
Direct Newton iteration for .op point succeeded.
Direct Newton iteration for .op point succeeded.
Direct Newton iteration for .op point succeeded.
Direct Newton iteration for .op point succeeded.
Direct Newton iteration for .op point succeeded.
Direct Newton iteration for .op point succeeded.
Direct Newton iteration for .op point succeeded.
Direct Newton iteration for .op point succeeded.
Direct Newton iteration for .op point succeeded.
Direct Newton iteration for .op point succeeded.
Direct Newton iteration for .op point succeeded.
Direct Newton iteration for .op point succeeded.
Direct Newton iteration for .op point succeeded.
Direct Newton iteration for .op point succeeded.
Direct Newton iteration for .op point succeeded.
Direct Newton iteration for .op point succeeded.
Direct Newton iteration for .op point succeeded.
Direct Newton iteration for .op point succeeded.
Direct Newton iteration for .op point succeeded.
Direct Newton iteration for .op point succeeded.
Direct Newton iteration for .op point succeeded.
Direct Newton iteration for .op point succeeded.
Direct Newton iteration for .op point succeeded.
Direct Newton iteration for .op point succeeded.
Direct Newton iteration for .op point succeeded.
Direct Newton iteration for .op point succeeded.
Direct Newton iteration for .op point succeeded.
Direct Newton iteration for .op point succeeded.
Direct Newton iteration for .op point succeeded.
Direct Newton iteration for .op point succeeded.
Direct Newton iteration for .op point succeeded.
Direct Newton iteration for .op point succeeded.
Direct Newton iteration for .op point succeeded.
Direct Newton iteration for .op point succeeded.
Direct Newton iteration for .op point succeeded.
Direct Newton iteration for .op point succeeded.
Direct Newton iteration for .op point succeeded.
Direct Newton iteration for .op point succeeded.
Direct Newton iteration for .op point succeeded.
Direct Newton iteration for .op point succeeded.
Direct Newton iteration for .op point succeeded.
Direct Newton iteration for .op point succeeded.
Direct Newton iteration for .op point succeeded.
Direct Newton iteration for .op point succeeded.
Direct Newton iteration for .op point succeeded.
Direct Newton iteration for .op point succeeded.
Direct Newton iteration for .op point succeeded.
Direct Newton iteration for .op point succeeded.
Direct Newton iteration for .op point succeeded.
Direct Newton iteration for .op point succeeded.
Direct Newton iteration for .op point succeeded.
Direct Newton iteration for .op point succeeded.
Direct Newton iteration for .op point succeeded.
Direct Newton iteration for .op point succeeded.
Direct Newton iteration for .op point succeeded.
Direct Newton iteration for .op point succeeded.
Direct Newton iteration for .op point succeeded.
Direct Newton iteration for .op point succeeded.
Direct Newton iteration for .op point succeeded.
Direct Newton iteration for .op point succeeded.
Direct Newton iteration for .op point succeeded.
Direct Newton iteration for .op point succeeded.
Direct Newton iteration for .op point succeeded.
Direct Newton iteration for .op point succeeded.
Direct Newton iteration for .op point succeeded.
Direct Newton iteration for .op point succeeded.
Direct Newton iteration for .op point succeeded.
Direct Newton iteration for .op point succeeded.
Direct Newton iteration for .op point succeeded.
Direct Newton iteration for .op point succeeded.
Direct Newton iteration for .op point succeeded.
Direct Newton iteration for .op point succeeded.
Direct Newton iteration for .op point succeeded.
Direct Newton iteration for .op point succeeded.
Direct Newton iteration for .op point succeeded.
Direct Newton iteration for .op point succeeded.
Direct Newton iteration for .op point succeeded.
Direct Newton iteration for .op point succeeded.
Direct Newton iteration for .op point succeeded.
Direct Newton iteration for .op point succeeded.
Direct Newton iteration for .op point succeeded.
Direct Newton iteration for .op point succeeded.
Direct Newton iteration for .op point succeeded.
Direct Newton iteration for .op point succeeded.
Direct Newton iteration for .op point succeeded.
Direct Newton iteration for .op point succeeded.
Direct Newton iteration for .op point succeeded.
Direct Newton iteration for .op point succeeded.
Direct Newton iteration for .op point succeeded.
Direct Newton iteration for .op point succeeded.
Direct Newton iteration for .op point succeeded.
Direct Newton iteration for .op point succeeded.
Direct Newton iteration for .op point succeeded.
Direct Newton iteration for .op point succeeded.
Direct Newton iteration for .op point succeeded.
Direct Newton iteration for .op point succeeded.
Direct Newton iteration for .op point succeeded.
Direct Newton iteration for .op point succeeded.
Direct Newton iteration for .op point succeeded.
Direct Newton iteration for .op point succeeded.
Direct Newton iteration for .op point succeeded.
Direct Newton iteration for .op point succeeded.
Direct Newton iteration for .op point succeeded.
Direct Newton iteration for .op point succeeded.
Direct Newton iteration for .op point succeeded.
Direct Newton iteration for .op point succeeded.
Direct Newton iteration for .op point succeeded.
Direct Newton iteration for .op point succeeded.
Direct Newton iteration for .op point succeeded.
Direct Newton iteration for .op point succeeded.
Direct Newton iteration for .op point succeeded.
Direct Newton iteration for .op point succeeded.
Direct Newton iteration for .op point succeeded.
Direct Newton iteration for .op point succeeded.
Direct Newton iteration for .op point succeeded.
Direct Newton iteration for .op point succeeded.
Direct Newton iteration for .op point succeeded.
Direct Newton iteration for .op point succeeded.
Direct Newton iteration for .op point succeeded.
Direct Newton iteration for .op point succeeded.
Direct Newton iteration for .op point succeeded.
Direct Newton iteration for .op point succeeded.
Direct Newton iteration for .op point succeeded.
Direct Newton iteration for .op point succeeded.
Direct Newton iteration for .op point succeeded.
Direct Newton iteration for .op point succeeded.
Direct Newton iteration for .op point succeeded.
Direct Newton iteration for .op point succeeded.
Direct Newton iteration for .op point succeeded.
Direct Newton iteration for .op point succeeded.
Direct Newton iteration for .op point succeeded.
Direct Newton iteration for .op point succeeded.
Direct Newton iteration for .op point succeeded.
Direct Newton iteration for .op point succeeded.
Direct Newton iteration for .op point succeeded.
Direct Newton iteration for .op point succeeded.
Direct Newton iteration for .op point succeeded.
Direct Newton iteration for .op point succeeded.
Direct Newton iteration for .op point succeeded.
Direct Newton iteration for .op point succeeded.
Direct Newton iteration for .op point succeeded.
Direct Newton iteration for .op point succeeded.
Direct Newton iteration for .op point succeeded.
Direct Newton iteration for .op point succeeded.
Direct Newton iteration for .op point succeeded.
Direct Newton iteration for .op point succeeded.
Direct Newton iteration for .op point succeeded.
Direct Newton iteration for .op point succeeded.
Direct Newton iteration for .op point succeeded.
Direct Newton iteration for .op point succeeded.
Direct Newton iteration for .op point succeeded.
Direct Newton iteration for .op point succeeded.
Direct Newton iteration for .op point succeeded.
Direct Newton iteration for .op point succeeded.
Direct Newton iteration for .op point succeeded.
Direct Newton iteration for .op point succeeded.
Direct Newton iteration for .op point succeeded.
Direct Newton iteration for .op point succeeded.
Direct Newton iteration for .op point succeeded.
Direct Newton iteration for .op point succeeded.
Direct Newton iteration for .op point succeeded.
Direct Newton iteration for .op point succeeded.
Direct Newton iteration for .op point succeeded.
Direct Newton iteration for .op point succeeded.
Direct Newton iteration for .op point succeeded.
Direct Newton iteration for .op point succeeded.
Direct Newton iteration for .op point succeeded.
Direct Newton iteration for .op point succeeded.
Direct Newton iteration for .op point succeeded.
Direct Newton iteration for .op point succeeded.
Direct Newton iteration for .op point succeeded.
Direct Newton iteration for .op point succeeded.
Direct Newton iteration for .op point succeeded.
Direct Newton iteration for .op point succeeded.
Direct Newton iteration for .op point succeeded.
Direct Newton iteration for .op point succeeded.
Direct Newton iteration for .op point succeeded.
Direct Newton iteration for .op point succeeded.
Direct Newton iteration for .op point succeeded.
Direct Newton iteration for .op point succeeded.
Direct Newton iteration for .op point succeeded.
Direct Newton iteration for .op point succeeded.
Direct Newton iteration for .op point succeeded.
Direct Newton iteration for .op point succeeded.
Direct Newton iteration for .op point succeeded.
Direct Newton iteration for .op point succeeded.
Direct Newton iteration for .op point succeeded.
Direct Newton iteration for .op point succeeded.
Direct Newton iteration for .op point succeeded.
Direct Newton iteration for .op point succeeded.
Direct Newton iteration for .op point succeeded.
Direct Newton iteration for .op point succeeded.
Direct Newton iteration for .op point succeeded.
Direct Newton iteration for .op point succeeded.
Direct Newton iteration for .op point succeeded.
Direct Newton iteration for .op point succeeded.
Direct Newton iteration for .op point succeeded.
Direct Newton iteration for .op point succeeded.
Direct Newton iteration for .op point succeeded.
Direct Newton iteration for .op point succeeded.
Direct Newton iteration for .op point succeeded.
Direct Newton iteration for .op point succeeded.
Direct Newton iteration for .op point succeeded.
Direct Newton iteration for .op point succeeded.
Direct Newton iteration for .op point succeeded.
Direct Newton iteration for .op point succeeded.
Direct Newton iteration for .op point succeeded.
Direct Newton iteration for .op point succeeded.
Direct Newton iteration for .op point succeeded.
Direct Newton iteration for .op point succeeded.
Direct Newton iteration for .op point succeeded.
Direct Newton iteration for .op point succeeded.
Direct Newton iteration for .op point succeeded.
Direct Newton iteration for .op point succeeded.
Direct Newton iteration for .op point succeeded.
Direct Newton iteration for .op point succeeded.
Direct Newton iteration for .op point succeeded.
Direct Newton iteration for .op point succeeded.
Direct Newton iteration for .op point succeeded.
Direct Newton iteration for .op point succeeded.
Direct Newton iteration for .op point succeeded.
Direct Newton iteration for .op point succeeded.
Direct Newton iteration for .op point succeeded.
Direct Newton iteration for .op point succeeded.
Direct Newton iteration for .op point succeeded.
Direct Newton iteration for .op point succeeded.
Direct Newton iteration for .op point succeeded.
Direct Newton iteration for .op point succeeded.
Direct Newton iteration for .op point succeeded.
Direct Newton iteration for .op point succeeded.
Direct Newton iteration for .op point succeeded.
Direct Newton iteration for .op point succeeded.
Direct Newton iteration for .op point succeeded.
Direct Newton iteration for .op point succeeded.
Direct Newton iteration for .op point succeeded.
Direct Newton iteration for .op point succeeded.
Direct Newton iteration for .op point succeeded.
Direct Newton iteration for .op point succeeded.
Direct Newton iteration for .op point succeeded.
Direct Newton iteration for .op point succeeded.
Direct Newton iteration for .op point succeeded.
Direct Newton iteration for .op point succeeded.
Direct Newton iteration for .op point succeeded.
Direct Newton iteration for .op point succeeded.
Direct Newton iteration for .op point succeeded.
Direct Newton iteration for .op point succeeded.
Direct Newton iteration for .op point succeeded.
Direct Newton iteration for .op point succeeded.
Direct Newton iteration for .op point succeeded.
Direct Newton iteration for .op point succeeded.
Direct Newton iteration for .op point succeeded.
Direct Newton iteration for .op point succeeded.
Direct Newton iteration for .op point succeeded.
Direct Newton iteration for .op point succeeded.
Direct Newton iteration for .op point succeeded.
Direct Newton iteration for .op point succeeded.
Direct Newton iteration for .op point succeeded.
Direct Newton iteration for .op point succeeded.
Direct Newton iteration for .op point succeeded.
Direct Newton iteration for .op point succeeded.
Direct Newton iteration for .op point succeeded.
Direct Newton iteration for .op point succeeded.
Direct Newton iteration for .op point succeeded.
Direct Newton iteration for .op point succeeded.
Direct Newton iteration for .op point succeeded.
Direct Newton iteration for .op point succeeded.
Direct Newton iteration for .op point succeeded.
Direct Newton iteration for .op point succeeded.
Direct Newton iteration for .op point succeeded.
Direct Newton iteration for .op point succeeded.
Direct Newton iteration for .op point succeeded.
Direct Newton iteration for .op point succeeded.
Direct Newton iteration for .op point succeeded.
Direct Newton iteration for .op point succeeded.
Direct Newton iteration for .op point succeeded.
Direct Newton iteration for .op point succeeded.
Direct Newton iteration for .op point succeeded.
Direct Newton iteration for .op point succeeded.
Direct Newton iteration for .op point succeeded.
Direct Newton iteration for .op point succeeded.
Direct Newton iteration for .op point succeeded.
Direct Newton iteration for .op point succeeded.
Direct Newton iteration for .op point succeeded.
Direct Newton iteration for .op point succeeded.
Direct Newton iteration for .op point succeeded.
Direct Newton iteration for .op point succeeded.
Direct Newton iteration for .op point succeeded.
Direct Newton iteration for .op point succeeded.
Direct Newton iteration for .op point succeeded.
Direct Newton iteration for .op point succeeded.
Direct Newton iteration for .op point succeeded.
Direct Newton iteration for .op point succeeded.
Direct Newton iteration for .op point succeeded.
Direct Newton iteration for .op point succeeded.
Direct Newton iteration for .op point succeeded.
Direct Newton iteration for .op point succeeded.
Direct Newton iteration for .op point succeeded.
Direct Newton iteration for .op point succeeded.
Direct Newton iteration for .op point succeeded.
Direct Newton iteration for .op point succeeded.
Direct Newton iteration for .op point succeeded.
Direct Newton iteration for .op point succeeded.
Direct Newton iteration for .op point succeeded.
Direct Newton iteration for .op point succeeded.
Direct Newton iteration for .op point succeeded.
Direct Newton iteration for .op point succeeded.
Direct Newton iteration for .op point succeeded.
Direct Newton iteration for .op point succeeded.
Direct Newton iteration for .op point succeeded.
Direct Newton iteration for .op point succeeded.
Direct Newton iteration for .op point succeeded.
Direct Newton iteration for .op point succeeded.
Direct Newton iteration for .op point succeeded.
Direct Newton iteration for .op point succeeded.
Direct Newton iteration for .op point succeeded.
Direct Newton iteration for .op point succeeded.
Direct Newton iteration for .op point succeeded.
Direct Newton iteration for .op point succeeded.
Direct Newton iteration for .op point succeeded.
Direct Newton iteration for .op point succeeded.
Direct Newton iteration for .op point succeeded.
Direct Newton iteration for .op point succeeded.
Direct Newton iteration for .op point succeeded.
Direct Newton iteration for .op point succeeded.
Direct Newton iteration for .op point succeeded.
Direct Newton iteration for .op point succeeded.
Direct Newton iteration for .op point succeeded.
Direct Newton iteration for .op point succeeded.
Direct Newton iteration for .op point succeeded.
Direct Newton iteration for .op point succeeded.
Direct Newton iteration for .op point succeeded.
Direct Newton iteration for .op point succeeded.
Direct Newton iteration for .op point succeeded.
Direct Newton iteration for .op point succeeded.
Direct Newton iteration for .op point succeeded.
Direct Newton iteration for .op point succeeded.
Direct Newton iteration for .op point succeeded.
Direct Newton iteration for .op point succeeded.
Direct Newton iteration for .op point succeeded.
Direct Newton iteration for .op point succeeded.
Direct Newton iteration for .op point succeeded.
Direct Newton iteration for .op point succeeded.
Direct Newton iteration for .op point succeeded.
Direct Newton iteration for .op point succeeded.
Direct Newton iteration for .op point succeeded.
Direct Newton iteration for .op point succeeded.
Direct Newton iteration for .op point succeeded.
Direct Newton iteration for .op point succeeded.
Direct Newton iteration for .op point succeeded.
Direct Newton iteration for .op point succeeded.
Direct Newton iteration for .op point succeeded.
Direct Newton iteration for .op point succeeded.
Direct Newton iteration for .op point succeeded.
Direct Newton iteration for .op point succeeded.
Direct Newton iteration for .op point succeeded.
Direct Newton iteration for .op point succeeded.
Direct Newton iteration for .op point succeeded.
Direct Newton iteration for .op point succeeded.
Direct Newton iteration for .op point succeeded.
Direct Newton iteration for .op point succeeded.
Direct Newton iteration for .op point succeeded.
Direct Newton iteration for .op point succeeded.
Direct Newton iteration for .op point succeeded.
Direct Newton iteration for .op point succeeded.
Direct Newton iteration for .op point succeeded.
Direct Newton iteration for .op point succeeded.
Direct Newton iteration for .op point succeeded.
Direct Newton iteration for .op point succeeded.
Direct Newton iteration for .op point succeeded.
Direct Newton iteration for .op point succeeded.
Direct Newton iteration for .op point succeeded.
Direct Newton iteration for .op point succeeded.
Direct Newton iteration for .op point succeeded.
Direct Newton iteration for .op point succeeded.
Direct Newton iteration for .op point succeeded.
Direct Newton iteration for .op point succeeded.
Direct Newton iteration for .op point succeeded.
Direct Newton iteration for .op point succeeded.
Direct Newton iteration for .op point succeeded.
Direct Newton iteration for .op point succeeded.
Direct Newton iteration for .op point succeeded.
Direct Newton iteration for .op point succeeded.
Direct Newton iteration for .op point succeeded.
Direct Newton iteration for .op point succeeded.
Direct Newton iteration for .op point succeeded.
Direct Newton iteration for .op point succeeded.
Direct Newton iteration for .op point succeeded.
Direct Newton iteration for .op point succeeded.
Direct Newton iteration for .op point succeeded.
Direct Newton iteration for .op point succeeded.
Direct Newton iteration for .op point succeeded.
Direct Newton iteration for .op point succeeded.
Direct Newton iteration for .op point succeeded.
Direct Newton iteration for .op point succeeded.
Direct Newton iteration for .op point succeeded.
Direct Newton iteration for .op point succeeded.
Direct Newton iteration for .op point succeeded.
Direct Newton iteration for .op point succeeded.
Direct Newton iteration for .op point succeeded.
Direct Newton iteration for .op point succeeded.
Direct Newton iteration for .op point succeeded.
Direct Newton iteration for .op point succeeded.
Direct Newton iteration for .op point succeeded.
Direct Newton iteration for .op point succeeded.
Direct Newton iteration for .op point succeeded.
Direct Newton iteration for .op point succeeded.
Direct Newton iteration for .op point succeeded.
Direct Newton iteration for .op point succeeded.
Direct Newton iteration for .op point succeeded.
Direct Newton iteration for .op point succeeded.
Direct Newton iteration for .op point succeeded.
Direct Newton iteration for .op point succeeded.
Direct Newton iteration for .op point succeeded.
Direct Newton iteration for .op point succeeded.
Direct Newton iteration for .op point succeeded.
Direct Newton iteration for .op point succeeded.
Direct Newton iteration for .op point succeeded.
Direct Newton iteration for .op point succeeded.
Direct Newton iteration for .op point succeeded.
Direct Newton iteration for .op point succeeded.
Direct Newton iteration for .op point succeeded.
Direct Newton iteration for .op point succeeded.
Direct Newton iteration for .op point succeeded.
Direct Newton iteration for .op point succeeded.
Direct Newton iteration for .op point succeeded.
Direct Newton iteration for .op point succeeded.
Direct Newton iteration for .op point succeeded.
Direct Newton iteration for .op point succeeded.
Direct Newton iteration for .op point succeeded.
Direct Newton iteration for .op point succeeded.
Direct Newton iteration for .op point succeeded.
Direct Newton iteration for .op point succeeded.
Direct Newton iteration for .op point succeeded.
Direct Newton iteration for .op point succeeded.
Direct Newton iteration for .op point succeeded.
Direct Newton iteration for .op point succeeded.
Direct Newton iteration for .op point succeeded.
Direct Newton iteration for .op point succeeded.
Direct Newton iteration for .op point succeeded.
Direct Newton iteration for .op point succeeded.
Direct Newton iteration for .op point succeeded.
Direct Newton iteration for .op point succeeded.
Direct Newton iteration for .op point succeeded.
Direct Newton iteration for .op point succeeded.
Direct Newton iteration for .op point succeeded.
Direct Newton iteration for .op point succeeded.
Direct Newton iteration for .op point succeeded.
Direct Newton iteration for .op point succeeded.
Direct Newton iteration for .op point succeeded.
Direct Newton iteration for .op point succeeded.
Direct Newton iteration for .op point succeeded.
Direct Newton iteration for .op point succeeded.
Direct Newton iteration for .op point succeeded.
Direct Newton iteration for .op point succeeded.
Direct Newton iteration for .op point succeeded.
Direct Newton iteration for .op point succeeded.
Direct Newton iteration for .op point succeeded.
Direct Newton iteration for .op point succeeded.
Direct Newton iteration for .op point succeeded.
Direct Newton iteration for .op point succeeded.
Direct Newton iteration for .op point succeeded.
Direct Newton iteration for .op point succeeded.
Direct Newton iteration for .op point succeeded.
Direct Newton iteration for .op point succeeded.
Direct Newton iteration for .op point succeeded.
Direct Newton iteration for .op point succeeded.
Direct Newton iteration for .op point succeeded.
Direct Newton iteration for .op point succeeded.
Direct Newton iteration for .op point succeeded.
Direct Newton iteration for .op point succeeded.
Direct Newton iteration for .op point succeeded.
Direct Newton iteration for .op point succeeded.
Direct Newton iteration for .op point succeeded.
Direct Newton iteration for .op point succeeded.
Direct Newton iteration for .op point succeeded.
Direct Newton iteration for .op point succeeded.
Direct Newton iteration for .op point succeeded.
Direct Newton iteration for .op point succeeded.
Direct Newton iteration for .op point succeeded.
Direct Newton iteration for .op point succeeded.
Direct Newton iteration for .op point succeeded.
Direct Newton iteration for .op point succeeded.
Direct Newton iteration for .op point succeeded.
Direct Newton iteration for .op point succeeded.
Direct Newton iteration for .op point succeeded.
Direct Newton iteration for .op point succeeded.
Direct Newton iteration for .op point succeeded.
Direct Newton iteration for .op point succeeded.
Direct Newton iteration for .op point succeeded.
Direct Newton iteration for .op point succeeded.
Direct Newton iteration for .op point succeeded.
Direct Newton iteration for .op point succeeded.
Direct Newton iteration for .op point succeeded.
Direct Newton iteration for .op point succeeded.
Direct Newton iteration for .op point succeeded.
Direct Newton iteration for .op point succeeded.
Direct Newton iteration for .op point succeeded.
Direct Newton iteration for .op point succeeded.
Direct Newton iteration for .op point succeeded.
Direct Newton iteration for .op point succeeded.
Direct Newton iteration for .op point succeeded.
Direct Newton iteration for .op point succeeded.
Direct Newton iteration for .op point succeeded.
Direct Newton iteration for .op point succeeded.
Direct Newton iteration for .op point succeeded.
Direct Newton iteration for .op point succeeded.
Direct Newton iteration for .op point succeeded.
Direct Newton iteration for .op point succeeded.
Direct Newton iteration for .op point succeeded.
Direct Newton iteration for .op point succeeded.
Direct Newton iteration for .op point succeeded.
Direct Newton iteration for .op point succeeded.
Direct Newton iteration for .op point succeeded.
Direct Newton iteration for .op point succeeded.
Direct Newton iteration for .op point succeeded.
Direct Newton iteration for .op point succeeded.
Direct Newton iteration for .op point succeeded.
Direct Newton iteration for .op point succeeded.
Direct Newton iteration for .op point succeeded.
Direct Newton iteration for .op point succeeded.
Direct Newton iteration for .op point succeeded.
Direct Newton iteration for .op point succeeded.
Direct Newton iteration for .op point succeeded.
Direct Newton iteration for .op point succeeded.
Direct Newton iteration for .op point succeeded.
Direct Newton iteration for .op point succeeded.
Direct Newton iteration for .op point succeeded.
Direct Newton iteration for .op point succeeded.
Direct Newton iteration for .op point succeeded.
Direct Newton iteration for .op point succeeded.
Direct Newton iteration for .op point succeeded.
Direct Newton iteration for .op point succeeded.
Direct Newton iteration for .op point succeeded.
Direct Newton iteration for .op point succeeded.
Direct Newton iteration for .op point succeeded.
Direct Newton iteration for .op point succeeded.
Direct Newton iteration for .op point succeeded.
Direct Newton iteration for .op point succeeded.
Direct Newton iteration for .op point succeeded.
Direct Newton iteration for .op point succeeded.
Direct Newton iteration for .op point succeeded.
Direct Newton iteration for .op point succeeded.
Direct Newton iteration for .op point succeeded.
Direct Newton iteration for .op point succeeded.
Direct Newton iteration for .op point succeeded.
Direct Newton iteration for .op point succeeded.
Direct Newton iteration for .op point succeeded.
Direct Newton iteration for .op point succeeded.
Direct Newton iteration for .op point succeeded.
Direct Newton iteration for .op point succeeded.
Direct Newton iteration for .op point succeeded.
Direct Newton iteration for .op point succeeded.
Direct Newton iteration for .op point succeeded.
Direct Newton iteration for .op point succeeded.
Direct Newton iteration for .op point succeeded.
Direct Newton iteration for .op point succeeded.
Direct Newton iteration for .op point succeeded.
Direct Newton iteration for .op point succeeded.
Direct Newton iteration for .op point succeeded.
Direct Newton iteration for .op point succeeded.
Direct Newton iteration for .op point succeeded.
Direct Newton iteration for .op point succeeded.
Direct Newton iteration for .op point succeeded.
Direct Newton iteration for .op point succeeded.
Direct Newton iteration for .op point succeeded.
Direct Newton iteration for .op point succeeded.
Direct Newton iteration for .op point succeeded.
Direct Newton iteration for .op point succeeded.
Direct Newton iteration for .op point succeeded.
Direct Newton iteration for .op point succeeded.
Direct Newton iteration for .op point succeeded.
Direct Newton iteration for .op point succeeded.
Direct Newton iteration for .op point succeeded.
Direct Newton iteration for .op point succeeded.
Direct Newton iteration for .op point succeeded.
Direct Newton iteration for .op point succeeded.
Direct Newton iteration for .op point succeeded.
Direct Newton iteration for .op point succeeded.
Direct Newton iteration for .op point succeeded.
Direct Newton iteration for .op point succeeded.
Direct Newton iteration for .op point succeeded.
Direct Newton iteration for .op point succeeded.
Direct Newton iteration for .op point succeeded.
Direct Newton iteration for .op point succeeded.
Direct Newton iteration for .op point succeeded.
Direct Newton iteration for .op point succeeded.
Direct Newton iteration for .op point succeeded.
Direct Newton iteration for .op point succeeded.
Direct Newton iteration for .op point succeeded.
Direct Newton iteration for .op point succeeded.
Direct Newton iteration for .op point succeeded.
Direct Newton iteration for .op point succeeded.
Direct Newton iteration for .op point succeeded.
Direct Newton iteration for .op point succeeded.
Direct Newton iteration for .op point succeeded.
Direct Newton iteration for .op point succeeded.
Direct Newton iteration for .op point succeeded.
Direct Newton iteration for .op point succeeded.
Direct Newton iteration for .op point succeeded.
Direct Newton iteration for .op point succeeded.
Direct Newton iteration for .op point succeeded.
Direct Newton iteration for .op point succeeded.
Direct Newton iteration for .op point succeeded.
Direct Newton iteration for .op point succeeded.
Direct Newton iteration for .op point succeeded.
Direct Newton iteration for .op point succeeded.
Direct Newton iteration for .op point succeeded.
Direct Newton iteration for .op point succeeded.
Direct Newton iteration for .op point succeeded.
Direct Newton iteration for .op point succeeded.
Direct Newton iteration for .op point succeeded.
Direct Newton iteration for .op point succeeded.
Direct Newton iteration for .op point succeeded.
Direct Newton iteration for .op point succeeded.
Direct Newton iteration for .op point succeeded.
Direct Newton iteration for .op point succeeded.
Direct Newton iteration for .op point succeeded.
Direct Newton iteration for .op point succeeded.
Direct Newton iteration for .op point succeeded.
Direct Newton iteration for .op point succeeded.
Direct Newton iteration for .op point succeeded.
Direct Newton iteration for .op point succeeded.
Direct Newton iteration for .op point succeeded.
Direct Newton iteration for .op point succeeded.
Direct Newton iteration for .op point succeeded.
Direct Newton iteration for .op point succeeded.
Direct Newton iteration for .op point succeeded.
Direct Newton iteration for .op point succeeded.
Direct Newton iteration for .op point succeeded.
Direct Newton iteration for .op point succeeded.
Direct Newton iteration for .op point succeeded.
Direct Newton iteration for .op point succeeded.
Direct Newton iteration for .op point succeeded.
Direct Newton iteration for .op point succeeded.
Direct Newton iteration for .op point succeeded.
Direct Newton iteration for .op point succeeded.
Direct Newton iteration for .op point succeeded.
Direct Newton iteration for .op point succeeded.
Direct Newton iteration for .op point succeeded.
Direct Newton iteration for .op point succeeded.
Direct Newton iteration for .op point succeeded.
Direct Newton iteration for .op point succeeded.
Direct Newton iteration for .op point succeeded.
Direct Newton iteration for .op point succeeded.
Direct Newton iteration for .op point succeeded.
Direct Newton iteration for .op point succeeded.
Direct Newton iteration for .op point succeeded.
Direct Newton iteration for .op point succeeded.
Direct Newton iteration for .op point succeeded.
Direct Newton iteration for .op point succeeded.
Direct Newton iteration for .op point succeeded.
Direct Newton iteration for .op point succeeded.
Direct Newton iteration for .op point succeeded.
Direct Newton iteration for .op point succeeded.
Direct Newton iteration for .op point succeeded.
Direct Newton iteration for .op point succeeded.
Direct Newton iteration for .op point succeeded.
Direct Newton iteration for .op point succeeded.
Direct Newton iteration for .op point succeeded.
Direct Newton iteration for .op point succeeded.
Direct Newton iteration for .op point succeeded.
Direct Newton iteration for .op point succeeded.
Direct Newton iteration for .op point succeeded.
Direct Newton iteration for .op point succeeded.
Direct Newton iteration for .op point succeeded.
Direct Newton iteration for .op point succeeded.
Direct Newton iteration for .op point succeeded.
Direct Newton iteration for .op point succeeded.
Direct Newton iteration for .op point succeeded.
Direct Newton iteration for .op point succeeded.
Direct Newton iteration for .op point succeeded.
Direct Newton iteration for .op point succeeded.
Direct Newton iteration for .op point succeeded.
Direct Newton iteration for .op point succeeded.
Direct Newton iteration for .op point succeeded.
Direct Newton iteration for .op point succeeded.
Direct Newton iteration for .op point succeeded.
Direct Newton iteration for .op point succeeded.
Direct Newton iteration for .op point succeeded.
Direct Newton iteration for .op point succeeded.
Direct Newton iteration for .op point succeeded.
Direct Newton iteration for .op point succeeded.
Direct Newton iteration for .op point succeeded.
Direct Newton iteration for .op point succeeded.
Direct Newton iteration for .op point succeeded.
Direct Newton iteration for .op point succeeded.
Direct Newton iteration for .op point succeeded.
Direct Newton iteration for .op point succeeded.
Direct Newton iteration for .op point succeeded.
Direct Newton iteration for .op point succeeded.
Direct Newton iteration for .op point succeeded.
Direct Newton iteration for .op point succeeded.
Direct Newton iteration for .op point succeeded.
Direct Newton iteration for .op point succeeded.
Direct Newton iteration for .op point succeeded.
Direct Newton iteration for .op point succeeded.
Direct Newton iteration for .op point succeeded.
Direct Newton iteration for .op point succeeded.
Direct Newton iteration for .op point succeeded.
Direct Newton iteration for .op point succeeded.
Direct Newton iteration for .op point succeeded.
Direct Newton iteration for .op point succeeded.
Direct Newton iteration for .op point succeeded.
Direct Newton iteration for .op point succeeded.
Direct Newton iteration for .op point succeeded.
Direct Newton iteration for .op point succeeded.
Direct Newton iteration for .op point succeeded.
Direct Newton iteration for .op point succeeded.
Direct Newton iteration for .op point succeeded.
Direct Newton iteration for .op point succeeded.
Direct Newton iteration for .op point succeeded.
Direct Newton iteration for .op point succeeded.
Direct Newton iteration for .op point succeeded.
Direct Newton iteration for .op point succeeded.
Direct Newton iteration for .op point succeeded.
Direct Newton iteration for .op point succeeded.
Direct Newton iteration for .op point succeeded.
Direct Newton iteration for .op point succeeded.
Direct Newton iteration for .op point succeeded.
Direct Newton iteration for .op point succeeded.
Direct Newton iteration for .op point succeeded.
Direct Newton iteration for .op point succeeded.
Direct Newton iteration for .op point succeeded.
Direct Newton iteration for .op point succeeded.
Direct Newton iteration for .op point succeeded.
Direct Newton iteration for .op point succeeded.
Direct Newton iteration for .op point succeeded.
Direct Newton iteration for .op point succeeded.
Direct Newton iteration for .op point succeeded.
Direct Newton iteration for .op point succeeded.
Direct Newton iteration for .op point succeeded.
Direct Newton iteration for .op point succeeded.
Direct Newton iteration for .op point succeeded.
Direct Newton iteration for .op point succeeded.
Direct Newton iteration for .op point succeeded.
Direct Newton iteration for .op point succeeded.
Direct Newton iteration for .op point succeeded.
Direct Newton iteration for .op point succeeded.
Direct Newton iteration for .op point succeeded.
Direct Newton iteration for .op point succeeded.
Direct Newton iteration for .op point succeeded.
Direct Newton iteration for .op point succeeded.
Direct Newton iteration for .op point succeeded.
Direct Newton iteration for .op point succeeded.
Direct Newton iteration for .op point succeeded.
Direct Newton iteration for .op point succeeded.
Direct Newton iteration for .op point succeeded.
Direct Newton iteration for .op point succeeded.
Direct Newton iteration for .op point succeeded.
Direct Newton iteration for .op point succeeded.
Direct Newton iteration for .op point succeeded.
Direct Newton iteration for .op point succeeded.
Direct Newton iteration for .op point succeeded.
Direct Newton iteration for .op point succeeded.
Direct Newton iteration for .op point succeeded.
Direct Newton iteration for .op point succeeded.
Direct Newton iteration for .op point succeeded.
Direct Newton iteration for .op point succeeded.
Direct Newton iteration for .op point succeeded.
Direct Newton iteration for .op point succeeded.
Direct Newton iteration for .op point succeeded.
Direct Newton iteration for .op point succeeded.
Direct Newton iteration for .op point succeeded.
Direct Newton iteration for .op point succeeded.
Direct Newton iteration for .op point succeeded.
Direct Newton iteration for .op point succeeded.
Direct Newton iteration for .op point succeeded.
Direct Newton iteration for .op point succeeded.
Direct Newton iteration for .op point succeeded.
Direct Newton iteration for .op point succeeded.
Direct Newton iteration for .op point succeeded.
Direct Newton iteration for .op point succeeded.
Direct Newton iteration for .op point succeeded.
Direct Newton iteration for .op point succeeded.
Direct Newton iteration for .op point succeeded.
Direct Newton iteration for .op point succeeded.
Direct Newton iteration for .op point succeeded.
Direct Newton iteration for .op point succeeded.
Direct Newton iteration for .op point succeeded.
Direct Newton iteration for .op point succeeded.
Direct Newton iteration for .op point succeeded.
Direct Newton iteration for .op point succeeded.
Direct Newton iteration for .op point succeeded.
Direct Newton iteration for .op point succeeded.
Direct Newton iteration for .op point succeeded.
Direct Newton iteration for .op point succeeded.
Direct Newton iteration for .op point succeeded.
Direct Newton iteration for .op point succeeded.
Direct Newton iteration for .op point succeeded.
Direct Newton iteration for .op point succeeded.
Direct Newton iteration for .op point succeeded.
Direct Newton iteration for .op point succeeded.
Direct Newton iteration for .op point succeeded.
Direct Newton iteration for .op point succeeded.
Direct Newton iteration for .op point succeeded.
Direct Newton iteration for .op point succeeded.
Direct Newton iteration for .op point succeeded.
Direct Newton iteration for .op point succeeded.
Direct Newton iteration for .op point succeeded.
Direct Newton iteration for .op point succeeded.
Direct Newton iteration for .op point succeeded.
Direct Newton iteration for .op point succeeded.
Direct Newton iteration for .op point succeeded.
Direct Newton iteration for .op point succeeded.
Direct Newton iteration for .op point succeeded.
Direct Newton iteration for .op point succeeded.
Direct Newton iteration for .op point succeeded.
Direct Newton iteration for .op point succeeded.
Direct Newton iteration for .op point succeeded.
Direct Newton iteration for .op point succeeded.
Direct Newton iteration for .op point succeeded.
Direct Newton iteration for .op point succeeded.
Direct Newton iteration for .op point succeeded.
Direct Newton iteration for .op point succeeded.
Direct Newton iteration for .op point succeeded.
Direct Newton iteration for .op point succeeded.
Direct Newton iteration for .op point succeeded.
Direct Newton iteration for .op point succeeded.
Direct Newton iteration for .op point succeeded.
Direct Newton iteration for .op point succeeded.
Direct Newton iteration for .op point succeeded.
Direct Newton iteration for .op point succeeded.
Direct Newton iteration for .op point succeeded.
Direct Newton iteration for .op point succeeded.
Direct Newton iteration for .op point succeeded.
Direct Newton iteration for .op point succeeded.
Direct Newton iteration for .op point succeeded.
Direct Newton iteration for .op point succeeded.
Direct Newton iteration for .op point succeeded.
Direct Newton iteration for .op point succeeded.
Direct Newton iteration for .op point succeeded.
Direct Newton iteration for .op point succeeded.
Direct Newton iteration for .op point succeeded.
Direct Newton iteration for .op point succeeded.
Direct Newton iteration for .op point succeeded.
Direct Newton iteration for .op point succeeded.
Direct Newton iteration for .op point succeeded.
Direct Newton iteration for .op point succeeded.
Direct Newton iteration for .op point succeeded.
Direct Newton iteration for .op point succeeded.
Direct Newton iteration for .op point succeeded.
Direct Newton iteration for .op point succeeded.
Direct Newton iteration for .op point succeeded.
Direct Newton iteration for .op point succeeded.
Direct Newton iteration for .op point succeeded.
Direct Newton iteration for .op point succeeded.
Direct Newton iteration for .op point succeeded.
Direct Newton iteration for .op point succeeded.
Direct Newton iteration for .op point succeeded.
Direct Newton iteration for .op point succeeded.
Direct Newton iteration for .op point succeeded.
Direct Newton iteration for .op point succeeded.
Direct Newton iteration for .op point succeeded.
Direct Newton iteration for .op point succeeded.
Direct Newton iteration for .op point succeeded.
Direct Newton iteration for .op point succeeded.
Direct Newton iteration for .op point succeeded.
Direct Newton iteration for .op point succeeded.
Direct Newton iteration for .op point succeeded.
Direct Newton iteration for .op point succeeded.
Direct Newton iteration for .op point succeeded.
Direct Newton iteration for .op point succeeded.
Direct Newton iteration for .op point succeeded.
Direct Newton iteration for .op point succeeded.
Direct Newton iteration for .op point succeeded.
Direct Newton iteration for .op point succeeded.
Direct Newton iteration for .op point succeeded.
Direct Newton iteration for .op point succeeded.
Direct Newton iteration for .op point succeeded.
Direct Newton iteration for .op point succeeded.
Direct Newton iteration for .op point succeeded.
Direct Newton iteration for .op point succeeded.
Direct Newton iteration for .op point succeeded.
Direct Newton iteration for .op point succeeded.
Direct Newton iteration for .op point succeeded.
Direct Newton iteration for .op point succeeded.
Direct Newton iteration for .op point succeeded.
Direct Newton iteration for .op point succeeded.
Direct Newton iteration for .op point succeeded.
Direct Newton iteration for .op point succeeded.
Direct Newton iteration for .op point succeeded.
Direct Newton iteration for .op point succeeded.
Direct Newton iteration for .op point succeeded.
Direct Newton iteration for .op point succeeded.
Direct Newton iteration for .op point succeeded.
Direct Newton iteration for .op point succeeded.
Direct Newton iteration for .op point succeeded.
Direct Newton iteration for .op point succeeded.
Direct Newton iteration for .op point succeeded.
Direct Newton iteration for .op point succeeded.
Direct Newton iteration for .op point succeeded.
Direct Newton iteration for .op point succeeded.
Direct Newton iteration for .op point succeeded.
Direct Newton iteration for .op point succeeded.
Direct Newton iteration for .op point succeeded.
Direct Newton iteration for .op point succeeded.
Direct Newton iteration for .op point succeeded.
Direct Newton iteration for .op point succeeded.
Direct Newton iteration for .op point succeeded.
Direct Newton iteration for .op point succeeded.
Direct Newton iteration for .op point succeeded.
Direct Newton iteration for .op point succeeded.
Direct Newton iteration for .op point succeeded.
Direct Newton iteration for .op point succeeded.
Direct Newton iteration for .op point succeeded.
Direct Newton iteration for .op point succeeded.
Direct Newton iteration for .op point succeeded.
Direct Newton iteration for .op point succeeded.
[...]
Direct Newton iteration for .op point succeeded.
Direct Newton iteration for .op point succeeded.
Direct Newton iteration for .op point succeeded.
Direct Newton iteration for .op point succeeded.
Direct Newton iteration for .op point succeeded.
Direct Newton iteration for .op point succeeded.
Direct Newton iteration for .op point succeeded.
Direct Newton iteration for .op point succeeded.
Direct Newton iteration for .op point succeeded.
Direct Newton iteration for .op point succeeded.
Direct Newton iteration for .op point succeeded.
Direct Newton iteration for .op point succeeded.
Direct Newton iteration for .op point succeeded.
Direct Newton iteration for .op point succeeded.
Direct Newton iteration for .op point succeeded.
Direct Newton iteration for .op point succeeded.
Direct Newton iteration for .op point succeeded.
Direct Newton iteration for .op point succeeded.
Direct Newton iteration for .op point succeeded.
Direct Newton iteration for .op point succeeded.
Direct Newton iteration for .op point succeeded.
Direct Newton iteration for .op point succeeded.
Direct Newton iteration for .op point succeeded.
Direct Newton iteration for .op point succeeded.
Direct Newton iteration for .op point succeeded.
Direct Newton iteration for .op point succeeded.
Direct Newton iteration for .op point succeeded.
Direct Newton iteration for .op point succeeded.
Direct Newton iteration for .op point succeeded.
Direct Newton iteration for .op point succeeded.
Direct Newton iteration for .op point succeeded.
Direct Newton iteration for .op point succeeded.
Direct Newton iteration for .op point succeeded.
Direct Newton iteration for .op point succeeded.
Direct Newton iteration for .op point succeeded.
Direct Newton iteration for .op point succeeded.
Direct Newton iteration for .op point succeeded.
Direct Newton iteration for .op point succeeded.
Direct Newton iteration for .op point succeeded.
Direct Newton iteration for .op point succeeded.
Direct Newton iteration for .op point succeeded.
Direct Newton iteration for .op point succeeded.
Direct Newton iteration for .op point succeeded.
Direct Newton iteration for .op point succeeded.
Direct Newton iteration for .op point succeeded.
Direct Newton iteration for .op point succeeded.
Direct Newton iteration for .op point succeeded.
Direct Newton iteration for .op point succeeded.
Direct Newton iteration for .op point succeeded.
Direct Newton iteration for .op point succeeded.
Direct Newton iteration for .op point succeeded.
Direct Newton iteration for .op point succeeded.
Direct Newton iteration for .op point succeeded.
Direct Newton iteration for .op point succeeded.
Direct Newton iteration for .op point succeeded.
Direct Newton iteration for .op point succeeded.
Direct Newton iteration for .op point succeeded.
Direct Newton iteration for .op point succeeded.
Direct Newton iteration for .op point succeeded.
Direct Newton iteration for .op point succeeded.
Direct Newton iteration for .op point succeeded.
Direct Newton iteration for .op point succeeded.
Direct Newton iteration for .op point succeeded.
Direct Newton iteration for .op point succeeded.
Direct Newton iteration for .op point succeeded.
Direct Newton iteration for .op point succeeded.
Direct Newton iteration for .op point succeeded.
Direct Newton iteration for .op point succeeded.
Direct Newton iteration for .op point succeeded.
Direct Newton iteration for .op point succeeded.
Direct Newton iteration for .op point succeeded.
Direct Newton iteration for .op point succeeded.
Direct Newton iteration for .op point succeeded.
Direct Newton iteration for .op point succeeded.
Direct Newton iteration for .op point succeeded.
Direct Newton iteration for .op point succeeded.
Direct Newton iteration for .op point succeeded.
Direct Newton iteration for .op point succeeded.
Direct Newton iteration for .op point succeeded.
Direct Newton iteration for .op point succeeded.
Direct Newton iteration for .op point succeeded.
Direct Newton iteration for .op point succeeded.
Direct Newton iteration for .op point succeeded.
Direct Newton iteration for .op point succeeded.
Direct Newton iteration for .op point succeeded.
Direct Newton iteration for .op point succeeded.
Direct Newton iteration for .op point succeeded.
Direct Newton iteration for .op point succeeded.
Direct Newton iteration for .op point succeeded.
Direct Newton iteration for .op point succeeded.
Direct Newton iteration for .op point succeeded.
Direct Newton iteration for .op point succeeded.
Direct Newton iteration for .op point succeeded.
Direct Newton iteration for .op point succeeded.
Direct Newton iteration for .op point succeeded.
Direct Newton iteration for .op point succeeded.
Direct Newton iteration for .op point succeeded.
Direct Newton iteration for .op point succeeded.
Direct Newton iteration for .op point succeeded.
Direct Newton iteration for .op point succeeded.
Direct Newton iteration for .op point succeeded.
Direct Newton iteration for .op point succeeded.
Direct Newton iteration for .op point succeeded.
Direct Newton iteration for .op point succeeded.
Direct Newton iteration for .op point succeeded.
Direct Newton iteration for .op point succeeded.
Direct Newton iteration for .op point succeeded.
Direct Newton iteration for .op point succeeded.
Direct Newton iteration for .op point succeeded.
Direct Newton iteration for .op point succeeded.
Direct Newton iteration for .op point succeeded.
Direct Newton iteration for .op point succeeded.
Direct Newton iteration for .op point succeeded.
Direct Newton iteration for .op point succeeded.
Direct Newton iteration for .op point succeeded.
Direct Newton iteration for .op point succeeded.
Direct Newton iteration for .op point succeeded.
Direct Newton iteration for .op point succeeded.
Direct Newton iteration for .op point succeeded.
Direct Newton iteration for .op point succeeded.
Direct Newton iteration for .op point succeeded.
Direct Newton iteration for .op point succeeded.
Direct Newton iteration for .op point succeeded.
Direct Newton iteration for .op point succeeded.
Direct Newton iteration for .op point succeeded.
Direct Newton iteration for .op point succeeded.
Direct Newton iteration for .op point succeeded.
Direct Newton iteration for .op point succeeded.
Direct Newton iteration for .op point succeeded.
Direct Newton iteration for .op point succeeded.
Direct Newton iteration for .op point succeeded.
Direct Newton iteration for .op point succeeded.
Direct Newton iteration for .op point succeeded.
Direct Newton iteration for .op point succeeded.
Direct Newton iteration for .op point succeeded.
Direct Newton iteration for .op point succeeded.
Direct Newton iteration for .op point succeeded.
Direct Newton iteration for .op point succeeded.
Direct Newton iteration for .op point succeeded.
Direct Newton iteration for .op point succeeded.
Direct Newton iteration for .op point succeeded.
Direct Newton iteration for .op point succeeded.
Direct Newton iteration for .op point succeeded.
Direct Newton iteration for .op point succeeded.
Direct Newton iteration for .op point succeeded.
Direct Newton iteration for .op point succeeded.
Direct Newton iteration for .op point succeeded.
Direct Newton iteration for .op point succeeded.
Direct Newton iteration for .op point succeeded.
Direct Newton iteration for .op point succeeded.
Direct Newton iteration for .op point succeeded.
Direct Newton iteration for .op point succeeded.
Direct Newton iteration for .op point succeeded.
Direct Newton iteration for .op point succeeded.
Direct Newton iteration for .op point succeeded.
Direct Newton iteration for .op point succeeded.
Direct Newton iteration for .op point succeeded.
Direct Newton iteration for .op point succeeded.
Direct Newton iteration for .op point succeeded.
Direct Newton iteration for .op point succeeded.
Direct Newton iteration for .op point succeeded.
Direct Newton iteration for .op point succeeded.
Direct Newton iteration for .op point succeeded.
Direct Newton iteration for .op point succeeded.
Direct Newton iteration for .op point succeeded.
Direct Newton iteration for .op point succeeded.
Direct Newton iteration for .op point succeeded.
Direct Newton iteration for .op point succeeded.
Direct Newton iteration for .op point succeeded.
Direct Newton iteration for .op point succeeded.
Direct Newton iteration for .op point succeeded.
Direct Newton iteration for .op point succeeded.
Direct Newton iteration for .op point succeeded.
Direct Newton iteration for .op point succeeded.
Direct Newton iteration for .op point succeeded.
Direct Newton iteration for .op point succeeded.
Direct Newton iteration for .op point succeeded.
Direct Newton iteration for .op point succeeded.
Direct Newton iteration for .op point succeeded.
Direct Newton iteration for .op point succeeded.
Direct Newton iteration for .op point succeeded.
Direct Newton iteration for .op point succeeded.
Direct Newton iteration for .op point succeeded.
Direct Newton iteration for .op point succeeded.
Direct Newton iteration for .op point succeeded.
Direct Newton iteration for .op point succeeded.
Direct Newton iteration for .op point succeeded.
Direct Newton iteration for .op point succeeded.
Direct Newton iteration for .op point succeeded.
Direct Newton iteration for .op point succeeded.
Direct Newton iteration for .op point succeeded.
Direct Newton iteration for .op point succeeded.
Direct Newton iteration for .op point succeeded.
Direct Newton iteration for .op point succeeded.
Direct Newton iteration for .op point succeeded.
Direct Newton iteration for .op point succeeded.
Direct Newton iteration for .op point succeeded.
Direct Newton iteration for .op point succeeded.
Direct Newton iteration for .op point succeeded.
Direct Newton iteration for .op point succeeded.
Direct Newton iteration for .op point succeeded.
Direct Newton iteration for .op point succeeded.
Direct Newton iteration for .op point succeeded.
Direct Newton iteration for .op point succeeded.
Direct Newton iteration for .op point succeeded.
Direct Newton iteration for .op point succeeded.
Direct Newton iteration for .op point succeeded.
Direct Newton iteration for .op point succeeded.
Direct Newton iteration for .op point succeeded.
Direct Newton iteration for .op point succeeded.
Direct Newton iteration for .op point succeeded.
Direct Newton iteration for .op point succeeded.
Direct Newton iteration for .op point succeeded.
Direct Newton iteration for .op point succeeded.
Direct Newton iteration for .op point succeeded.
Direct Newton iteration for .op point succeeded.
Direct Newton iteration for .op point succeeded.
Direct Newton iteration for .op point succeeded.
Direct Newton iteration for .op point succeeded.
Direct Newton iteration for .op point succeeded.
Direct Newton iteration for .op point succeeded.
Direct Newton iteration for .op point succeeded.
Direct Newton iteration for .op point succeeded.
Direct Newton iteration for .op point succeeded.
Direct Newton iteration for .op point succeeded.
Direct Newton iteration for .op point succeeded.
Direct Newton iteration for .op point succeeded.
Direct Newton iteration for .op point succeeded.
Direct Newton iteration for .op point succeeded.
Direct Newton iteration for .op point succeeded.
Direct Newton iteration for .op point succeeded.
Direct Newton iteration for .op point succeeded.
Direct Newton iteration for .op point succeeded.
Direct Newton iteration for .op point succeeded.
Direct Newton iteration for .op point succeeded.
Direct Newton iteration for .op point succeeded.
Direct Newton iteration for .op point succeeded.
Direct Newton iteration for .op point succeeded.
Direct Newton iteration for .op point succeeded.
Direct Newton iteration for .op point succeeded.
Direct Newton iteration for .op point succeeded.
Direct Newton iteration for .op point succeeded.
Direct Newton iteration for .op point succeeded.
Direct Newton iteration for .op point succeeded.
Direct Newton iteration for .op point succeeded.
Direct Newton iteration for .op point succeeded.
Direct Newton iteration for .op point succeeded.
Direct Newton iteration for .op point succeeded.
Direct Newton iteration for .op point succeeded.
Direct Newton iteration for .op point succeeded.
Direct Newton iteration for .op point succeeded.
Direct Newton iteration for .op point succeeded.
Direct Newton iteration for .op point succeeded.
Direct Newton iteration for .op point succeeded.
Direct Newton iteration for .op point succeeded.
Direct Newton iteration for .op point succeeded.
Direct Newton iteration for .op point succeeded.
Direct Newton iteration for .op point succeeded.
Direct Newton iteration for .op point succeeded.
Direct Newton iteration for .op point succeeded.
Direct Newton iteration for .op point succeeded.
Direct Newton iteration for .op point succeeded.
Direct Newton iteration for .op point succeeded.
Direct Newton iteration for .op point succeeded.
Direct Newton iteration for .op point succeeded.
Direct Newton iteration for .op point succeeded.
Direct Newton iteration for .op point succeeded.
Direct Newton iteration for .op point succeeded.
Direct Newton iteration for .op point succeeded.
Direct Newton iteration for .op point succeeded.
Direct Newton iteration for .op point succeeded.
Direct Newton iteration for .op point succeeded.
Direct Newton iteration for .op point succeeded.
Direct Newton iteration for .op point succeeded.
Direct Newton iteration for .op point succeeded.
Direct Newton iteration for .op point succeeded.
Direct Newton iteration for .op point succeeded.
Direct Newton iteration for .op point succeeded.
Direct Newton iteration for .op point succeeded.
Direct Newton iteration for .op point succeeded.
Direct Newton iteration for .op point succeeded.
Direct Newton iteration for .op point succeeded.
Direct Newton iteration for .op point succeeded.
Direct Newton iteration for .op point succeeded.
Direct Newton iteration for .op point succeeded.
Direct Newton iteration for .op point succeeded.
Direct Newton iteration for .op point succeeded.
Direct Newton iteration for .op point succeeded.
Direct Newton iteration for .op point succeeded.
Direct Newton iteration for .op point succeeded.
Direct Newton iteration for .op point succeeded.
Direct Newton iteration for .op point succeeded.
Direct Newton iteration for .op point succeeded.
Direct Newton iteration for .op point succeeded.
Direct Newton iteration for .op point succeeded.
Direct Newton iteration for .op point succeeded.
Direct Newton iteration for .op point succeeded.
Direct Newton iteration for .op point succeeded.
Direct Newton iteration for .op point succeeded.
Direct Newton iteration for .op point succeeded.
Direct Newton iteration for .op point succeeded.
Direct Newton iteration for .op point succeeded.
Direct Newton iteration for .op point succeeded.
Direct Newton iteration for .op point succeeded.
Direct Newton iteration for .op point succeeded.
Direct Newton iteration for .op point succeeded.
Direct Newton iteration for .op point succeeded.
Direct Newton iteration for .op point succeeded.
Direct Newton iteration for .op point succeeded.
Direct Newton iteration for .op point succeeded.
Direct Newton iteration for .op point succeeded.
Direct Newton iteration for .op point succeeded.
Direct Newton iteration for .op point succeeded.
Direct Newton iteration for .op point succeeded.
Direct Newton iteration for .op point succeeded.
Direct Newton iteration for .op point succeeded.
Direct Newton iteration for .op point succeeded.
Direct Newton iteration for .op point succeeded.
Direct Newton iteration for .op point succeeded.
Direct Newton iteration for .op point succeeded.
Direct Newton iteration for .op point succeeded.
Direct Newton iteration for .op point succeeded.
Direct Newton iteration for .op point succeeded.
Direct Newton iteration for .op point succeeded.
Direct Newton iteration for .op point succeeded.
Direct Newton iteration for .op point succeeded.
Direct Newton iteration for .op point succeeded.
Direct Newton iteration for .op point succeeded.
Direct Newton iteration for .op point succeeded.
Direct Newton iteration for .op point succeeded.
Direct Newton iteration for .op point succeeded.
Direct Newton iteration for .op point succeeded.
Direct Newton iteration for .op point succeeded.
Direct Newton iteration for .op point succeeded.
Direct Newton iteration for .op point succeeded.
Direct Newton iteration for .op point succeeded.
Direct Newton iteration for .op point succeeded.
Direct Newton iteration for .op point succeeded.
Direct Newton iteration for .op point succeeded.
Direct Newton iteration for .op point succeeded.
Direct Newton iteration for .op point succeeded.
Direct Newton iteration for .op point succeeded.
Direct Newton iteration for .op point succeeded.
Direct Newton iteration for .op point succeeded.
Direct Newton iteration for .op point succeeded.
Direct Newton iteration for .op point succeeded.
Direct Newton iteration for .op point succeeded.
Direct Newton iteration for .op point succeeded.
Direct Newton iteration for .op point succeeded.
Direct Newton iteration for .op point succeeded.
Direct Newton iteration for .op point succeeded.
Direct Newton iteration for .op point succeeded.
Direct Newton iteration for .op point succeeded.
Direct Newton iteration for .op point succeeded.
Direct Newton iteration for .op point succeeded.
Direct Newton iteration for .op point succeeded.
Direct Newton iteration for .op point succeeded.
Direct Newton iteration for .op point succeeded.
Direct Newton iteration for .op point succeeded.
Direct Newton iteration for .op point succeeded.
Direct Newton iteration for .op point succeeded.
Direct Newton iteration for .op point succeeded.
Direct Newton iteration for .op point succeeded.
Direct Newton iteration for .op point succeeded.
Direct Newton iteration for .op point succeeded.
Direct Newton iteration for .op point succeeded.
Direct Newton iteration for .op point succeeded.
Direct Newton iteration for .op point succeeded.
Direct Newton iteration for .op point succeeded.
Direct Newton iteration for .op point succeeded.
Direct Newton iteration for .op point succeeded.
Direct Newton iteration for .op point succeeded.
Direct Newton iteration for .op point succeeded.
Direct Newton iteration for .op point succeeded.
Direct Newton iteration for .op point succeeded.
Direct Newton iteration for .op point succeeded.
Direct Newton iteration for .op point succeeded.
Direct Newton iteration for .op point succeeded.
Direct Newton iteration for .op point succeeded.
Direct Newton iteration for .op point succeeded.
Direct Newton iteration for .op point succeeded.
Direct Newton iteration for .op point succeeded.
Direct Newton iteration for .op point succeeded.
Direct Newton iteration for .op point succeeded.
Direct Newton iteration for .op point succeeded.
Direct Newton iteration for .op point succeeded.
Direct Newton iteration for .op point succeeded.
Direct Newton iteration for .op point succeeded.
Direct Newton iteration for .op point succeeded.
Direct Newton iteration for .op point succeeded.
Direct Newton iteration for .op point succeeded.
Direct Newton iteration for .op point succeeded.
Direct Newton iteration for .op point succeeded.
Direct Newton iteration for .op point succeeded.
Direct Newton iteration for .op point succeeded.
Direct Newton iteration for .op point succeeded.
Direct Newton iteration for .op point succeeded.
Direct Newton iteration for .op point succeeded.
Direct Newton iteration for .op point succeeded.
Direct Newton iteration for .op point succeeded.
Direct Newton iteration for .op point succeeded.

Date: Wed Apr 09 20:29:55 2025
Total elapsed time: 7.009 seconds.

tnom = 27
temp = 27
method = trap
totiter = 527051
traniter = 0
tranpoints = 0
accept = 0
rejected = 0
matrix size = 13
fillins = 0
solver = Normal
Matrix Compiler1: 424 bytes object code size  0.2/0.1/[0.1]
Matrix Compiler2: 919 bytes object code size  0.2/0.2/[0.2]

