Circuit: * C:\Users\moein\iCloudDrive\SUT\S4\Electronic II\ElectronicsII_Project_Phase1\Part3\Draft1.asc

Direct Newton iteration for .op point succeeded.
Changing Tseed to 1e-010
Heightened Def Con from 1e-010 to 1.1e-009

Date: Fri May 16 15:31:59 2025
Total elapsed time: 0.060 seconds.

tnom = 27
temp = 27
method = modified trap
totiter = 2150
traniter = 2141
tranpoints = 1022
accept = 1012
rejected = 10
matrix size = 13
fillins = 6
solver = Normal
Matrix Compiler1: 1.12 KB object code size  0.2/0.1/[0.1]
Matrix Compiler2: off  [0.1]/0.1/0.2

