Circuit: * C:\Users\moein\Desktop\ElectronicsII_Project_Phase1\Part1\P1.asc

Instance "m2": Length shorter than recommended for a level 1 MOSFET.
Instance "m1": Length shorter than recommended for a level 1 MOSFET.

Date: Wed Apr 02 11:56:53 2025
Total elapsed time: 0.690 seconds.

tnom = 27
temp = 27
method = trap
totiter = 148883
traniter = 0
tranpoints = 0
accept = 0
rejected = 0
matrix size = 9
fillins = 0
solver = Normal
Matrix Compiler1:      19 opcodes  0.1/[0.1]/0.1
Matrix Compiler2: off  [0.1]/0.5/0.1

