Circuit: * C:\Users\moein\Desktop\ElectronicsII_Project_Phase1\Part4\P4.asc

WARNING: Less than two connections to node VT.  This node is used by V5.
Instance "m7": Length shorter than recommended for a level 1 MOSFET.
Instance "m6": Length shorter than recommended for a level 1 MOSFET.
Instance "m5": Length shorter than recommended for a level 1 MOSFET.
Instance "m4": Length shorter than recommended for a level 1 MOSFET.
Instance "m4": Width narrower than recommended for a level 1 MOSFET.
Instance "m3": Length shorter than recommended for a level 1 MOSFET.
Instance "m3": Width narrower than recommended for a level 1 MOSFET.
Instance "m2": Length shorter than recommended for a level 1 MOSFET.
Instance "m1": Length shorter than recommended for a level 1 MOSFET.
Direct Newton iteration for .op point succeeded.

Date: Tue Apr 01 20:47:39 2025
Total elapsed time: 0.241 seconds.

tnom = 27
temp = 27
method = modified trap
totiter = 10049
traniter = 10034
tranpoints = 5018
accept = 5018
rejected = 0
matrix size = 13
fillins = 2
solver = Normal
Matrix Compiler1: 700 bytes object code size  0.1/0.1/[0.1]
Matrix Compiler2: off  [0.1]/0.1/0.1

